%chk=/home/unibas/boittier/RDKit_G2/B.pdb/SCAN_1_2_3_4_S_17_20.0/6_SCAN_1_2_3_4_F/B.pdb.chk
%nproc=8
%mem=16GB
#p wB97XD/6-31+G Opt=ModRedun

B.pdb

0 1
C         -1.053366       -1.258787        -0.082413
C         -0.466991       -0.061965        -0.059256
C         0.907070       0.340481        -0.379355
C         1.993204       -0.125835        0.257300
H         -2.104615       -1.375633        0.151724
H         -0.478374       -2.141740        -0.333325
F         -1.289444       1.076359        0.206184
H         1.000834       1.114637        -1.139423
H         1.916714       -0.852691        1.061277
H         2.990935       0.204835        -0.013561

1 2 3 4 F
 