%chk=/home/unibas/boittier/RDKit_G2/L.pdb/SCAN_1_2_3_4_S_17_20.0/9_SCAN_1_2_3_4_F/L.pdb.chk
%nproc=8
%mem=16GB
#p wB97XD/6-31+G Opt=ModRedun

L.pdb

0 1
C         1.483891       0.471247        0.000003
C         0.666930       -0.598128        -0.000026
C         -0.804764       -0.476868        -0.000013
O         -1.427146       0.601693        0.000008
H         -1.365690       -1.426144        0.000076
H         2.564186       0.366510        0.000089
H         1.077033       1.479013        -0.000042
H         1.065302       -1.610431        0.000027

1 2 3 4 F
 