%chk=/home/unibas/boittier/RDKit_G2/O.pdb/SCAN_1_2_6_8_S_17_20.0/0_SCAN_1_2_6_8_F/O.pdb.chk
%nproc=8
%mem=16GB
#p wB97XD/6-31+G Opt=ModRedun

O.pdb

0 1
C         1.803912       -0.536444        0.001381
C         0.483695       0.169248        -0.004137
H         1.925544       -1.086919        0.939109
H         2.605413       0.194881        -0.098633
H         1.850114       -1.260409        -0.815929
O         -0.559264       -0.713854        -0.005273
O         0.315142       1.389319        -0.000324
C         -1.910297       -0.155866        0.003381
H         -2.062851       0.438107        0.906299
H         -2.567435       -1.021780        -0.012524
H         -2.061667       0.470768        -0.877297

1 2 6 8 F
 