%chk=/home/unibas/boittier/RDKit_G2/O.pdb/SCAN_1_2_6_8_S_17_20.0/5_SCAN_1_2_6_8_F/O.pdb.chk
%nproc=8
%mem=16GB
#p wB97XD/6-31+G Opt=ModRedun

O.pdb

0 1
C         1.190237       -1.148392        -0.047359
C         0.553716       0.207101        0.062832
H         1.316615       -1.564047        0.957608
H         2.161820       -1.067377        -0.534092
H         0.553820       -1.838982        -0.609267
O         -0.735687       0.194860        0.592363
O         1.110356       1.265401        -0.187736
C         -1.849435       -0.147784        -0.284249
H         -1.935153       0.591578        -1.085150
H         -2.732760       -0.115681        0.349141
H         -1.728798       -1.153134        -0.702605

1 2 6 8 F
 