%chk=/home/unibas/boittier/RDKit_G2/O.pdb/SCAN_1_2_6_8_S_17_20.0/8_SCAN_1_2_6_8_F/O.pdb.chk
%nproc=8
%mem=16GB
#p wB97XD/6-31+G Opt=ModRedun

O.pdb

0 1
C         0.696875       -1.344109        0.026148
C         0.609200       0.160626        0.003622
H         0.294961       -1.739088        0.965101
H         1.744515       -1.628647        -0.062724
H         0.135504       -1.796413        -0.797700
O         -0.634319       0.727120        0.165591
O         1.581243       0.899909        -0.081310
C         -1.850659       -0.029771        -0.087225
H         -1.889149       -0.359722        -1.128944
H         -2.657702       0.672972        0.106810
H         -1.936020       -0.885807        0.587943

1 2 6 8 F
 