%chk=/home/unibas/boittier/RDKit_G2/O.pdb/SCAN_1_2_6_8_S_17_20.0/10_SCAN_1_2_6_8_F/O.pdb.chk
%nproc=8
%mem=16GB
#p wB97XD/6-31+G Opt=ModRedun

O.pdb

0 1
C         0.693653       -1.344751        -0.024820
C         0.609726       0.160212        -0.003213
H         0.134104       -1.794806        0.801468
H         1.740961       -1.631537        0.060671
H         0.287780       -1.740168        -0.961880
O         -0.633162       0.730351        -0.155589
O         1.584104       0.897062        0.076525
C         -1.850934       -0.028976        0.082021
H         -1.938428       -0.870078        -0.611364
H         -2.656419       0.679611        -0.096687
H         -1.890201       -0.381241        1.116375

1 2 6 8 F
 