%chk=/home/unibas/boittier/RDKit_G2/N.pdb/SCAN_1_2_6_8_S_17_20.0/4_SCAN_1_2_6_8_F/N.pdb.chk
%nproc=8
%mem=16GB
#p wB97XD/6-31+G Opt=ModRedun

N.pdb

0 1
C         2.764486       0.664842        -0.064801
C         1.479329       -0.103857        0.083591
H         2.782589       1.163777        -1.041751
H         3.612172       -0.018343        -0.002070
H         2.855020       1.441244        0.702782
C         0.237535       0.749602        0.316634
O         1.429760       -1.332435        0.024663
C         -1.074323       0.086557        0.000338
H         0.299713       1.663553        -0.282020
H         0.215591       1.056659        1.369042
F         -1.128814       -0.390037        -1.301561
F         -2.115453       1.014474        0.124753
F         -1.382992       -0.961135        0.848157

1 2 6 8 F
 