%chk=/home/unibas/boittier/RDKit_G2/O.pdb/SCAN_1_2_6_8_S_17_20.0/4_SCAN_1_2_6_8_F/O.pdb.chk
%nproc=8
%mem=16GB
#p wB97XD/6-31+G Opt=ModRedun

O.pdb

0 1
C         1.420841       -0.966467        -0.128650
C         0.531035       0.214999        0.109692
H         1.547083       -1.530011        0.800467
H         2.391006       -0.641349        -0.503622
H         0.948839       -1.637963        -0.854245
O         -0.716706       -0.133788        0.622729
O         0.820811       1.381390        -0.118425
C         -1.843232       -0.179285        -0.304772
H         -1.965144       0.787739        -0.800104
H         -2.713435       -0.400476        0.308541
H         -1.693046       -0.974235        -1.043088

1 2 6 8 F
 