%chk=/home/unibas/boittier/RDKit_G2/O.pdb/SCAN_1_2_6_8_S_17_20.0/14_SCAN_1_2_6_8_F/O.pdb.chk
%nproc=8
%mem=16GB
#p wB97XD/6-31+G Opt=ModRedun

O.pdb

0 1
C         1.407359       -0.978863        0.124337
C         0.532366       0.215112        -0.107197
H         0.921947       -1.656760        0.834845
H         2.377013       -0.669032        0.513284
H         1.537798       -1.529479        -0.812022
O         -0.719277       -0.113697        -0.624757
O         0.838304       1.376556        0.124129
C         -1.842945       -0.178206        0.304931
H         -1.689185       -0.984383        1.030290
H         -2.714027       -0.391887        -0.309781
H         -1.966445       0.780408        0.815983

1 2 6 8 F
 