%chk=/home/unibas/boittier/RDKit_G2/N.pdb/SCAN_1_2_6_8_S_17_20.0/3_SCAN_1_2_6_8_F/N.pdb.chk
%nproc=8
%mem=16GB
#p wB97XD/6-31+G Opt=ModRedun

N.pdb

0 1
C         2.672215       0.738452        -0.112799
C         1.475106       -0.131619        0.148346
H         2.492948       1.347223        -1.007927
H         3.555566       0.119482        -0.271937
H         2.846910       1.427669        0.721404
C         0.210749       0.597108        0.604940
O         1.500499       -1.356043        0.021493
C         -1.067192       0.079411        0.003603
H         0.277026       1.660902        0.364242
H         0.129748       0.508489        1.694254
F         -1.012763       0.053606        -1.386809
F         -2.131935       0.920400        0.342021
F         -1.416574       -1.186843        0.429619

1 2 6 8 F
 