%chk=/home/unibas/boittier/RDKit_G2/L.pdb/SCAN_1_2_3_4_S_17_20.0/2_SCAN_1_2_3_4_F/L.pdb.chk
%nproc=8
%mem=16GB
#p wB97XD/6-31+G Opt=ModRedun

L.pdb

0 1
C         1.741144       0.151214        0.139574
C         0.575197       -0.431626        -0.191230
C         -0.685961       0.333365        -0.196105
O         -1.765767       -0.125458        0.214051
H         -0.616482       1.394093        -0.497513
H         2.651845       -0.423312        0.275177
H         1.819196       1.226469        0.288547
H         0.489300       -1.511300        -0.292054

1 2 3 4 F
 