%chk=/home/unibas/boittier/RDKit_G2/B.pdb/SCAN_1_2_3_4_S_17_20.0/11_SCAN_1_2_3_4_F/B.pdb.chk
%nproc=8
%mem=16GB
#p wB97XD/6-31+G Opt=ModRedun

B.pdb

0 1
C         -0.926007       -1.309607        0.090335
C         -0.463319       -0.058407        0.048494
C         0.881368       0.477336        0.258667
C         2.008456       -0.104250        -0.185776
H         -1.971831       -1.527993        -0.086998
H         -0.257240       -2.132857        0.309805
F         -1.407893       0.988589        -0.170372
H         0.922460       1.427468        0.787169
H         1.992401       -1.022638        -0.766159
H         2.982263       0.328282        0.019211

1 2 3 4 F
 