%chk=/home/unibas/boittier/RDKit_G2/N.pdb/SCAN_1_2_6_8_S_17_20.0/2_SCAN_1_2_6_8_F/N.pdb.chk
%nproc=8
%mem=16GB
#p wB97XD/6-31+G Opt=ModRedun

N.pdb

0 1
C         2.514408       0.858607        -0.124896
C         1.466469       -0.170111        0.187155
H         2.121039       1.584830        -0.846685
H         3.400484       0.376551        -0.538712
H         2.787037       1.413024        0.781293
C         0.173845       0.344448        0.829501
O         1.623940       -1.373119        -0.024617
C         -1.055770       0.062895        0.009206
H         0.218992       1.424047        0.986222
H         0.044939       -0.142084        1.801107
F         -0.936381       0.584298        -1.280334
F         -2.176132       0.667850        0.579522
F         -1.349455       -1.279531        -0.120531

1 2 6 8 F
 