%chk=/home/unibas/boittier/RDKit_G2/L.pdb/SCAN_1_2_3_4_S_17_20.0/1_SCAN_1_2_3_4_F/L.pdb.chk
%nproc=8
%mem=16GB
#p wB97XD/6-31+G Opt=ModRedun

L.pdb

0 1
C         1.767077       0.138840        0.071254
C         0.564744       -0.440353        -0.100013
C         -0.672004       0.353175        -0.098160
O         -1.801153       -0.126394        0.106857
H         -0.550524       1.442848        -0.236771
H         2.681105       -0.441083        0.147190
H         1.870874       1.219883        0.143515
H         0.448870       -1.520468        -0.147275

1 2 3 4 F
 