%chk=/home/unibas/boittier/RDKit_G2/B.pdb/SCAN_1_2_3_4_S_17_20.0/1_SCAN_1_2_3_4_F/B.pdb.chk
%nproc=8
%mem=16GB
#p wB97XD/6-31+G Opt=ModRedun

B.pdb

0 1
C         -1.707286       -0.682449        0.095502
C         -0.520560       -0.084482        -0.054949
C         0.804837       -0.683952        -0.122803
C         1.957961       -0.030538        0.105212
H         -2.620819       -0.108260        0.183292
H         -1.774742       -1.763661        0.121567
F         -0.501254       1.337096        -0.058245
H         0.807765       -1.756173        -0.307273
H         1.980658       1.034974        0.307960
H         2.908708       -0.552211        0.080892

1 2 3 4 F
 