%chk=/home/unibas/boittier/RDKit_G2/O.pdb/SCAN_1_2_6_8_S_17_20.0/15_SCAN_1_2_6_8_F/O.pdb.chk
%nproc=8
%mem=16GB
#p wB97XD/6-31+G Opt=ModRedun

O.pdb

0 1
C         1.593093       -0.789026        0.166420
C         0.513653       0.204360        -0.132941
H         1.324243       -1.322101        1.085459
H         2.547701       -0.282239        0.306710
H         1.668766       -1.531148        -0.631950
O         -0.666325       -0.400868        -0.534086
O         0.596888       1.416566        0.033873
C         -1.861613       -0.177957        0.277416
H         -1.752367       -0.701959        1.231196
H         -2.682960       -0.602928        -0.294402
H         -2.020684       0.890524        0.439313

1 2 6 8 F
 