%chk=/home/unibas/boittier/RDKit_G2/L.pdb/SCAN_1_2_3_4_S_17_20.0/6_SCAN_1_2_3_4_F/L.pdb.chk
%nproc=8
%mem=16GB
#p wB97XD/6-31+G Opt=ModRedun

L.pdb

0 1
C         1.570684       0.419600        -0.079551
C         0.647548       -0.521944        0.173115
C         -0.777102       -0.393140        -0.213252
O         -1.541997       0.505426        0.173291
H         -1.172329       -1.207906        -0.846920
H         2.621516       0.261625        0.143050
H         1.297760       1.379824        -0.509068
H         0.942244       -1.504050        0.544730

1 2 3 4 F
 