%chk=/home/unibas/boittier/RDKit_G2/L.pdb/SCAN_1_2_3_4_S_17_20.0/15_SCAN_1_2_3_4_F/L.pdb.chk
%nproc=8
%mem=16GB
#p wB97XD/6-31+G Opt=ModRedun

L.pdb

0 1
C         1.706554       0.179849        -0.195269
C         0.592530       -0.423225        0.250504
C         -0.712159       0.282659        0.298509
O         -1.712971       -0.106429        -0.324502
H         -0.744429       1.243603        0.842194
H         2.625686       -0.373090        -0.361726
H         1.736990       1.245928        -0.410832
H         0.563969       -1.500710        0.403916

1 2 3 4 F
 