%chk=/home/unibas/boittier/RDKit_G2/B.pdb/SCAN_1_2_3_4_S_17_20.0/5_SCAN_1_2_3_4_F/B.pdb.chk
%nproc=8
%mem=16GB
#p wB97XD/6-31+G Opt=ModRedun

B.pdb

0 1
C         -1.219735       -1.172164        -0.010950
C         -0.475606       -0.070058        -0.069782
C         0.926218       0.125544        -0.478094
C         1.976823       -0.129253        0.316142
H         -2.267226       -1.130936        0.263254
H         -0.779830       -2.138236        -0.226771
F         -1.124383       1.182929        0.175328
H         1.074356       0.580182        -1.457188
H         1.852225       -0.538873        1.314712
H         2.993716       0.057087        -0.015856

1 2 3 4 F
 