%chk=/home/unibas/boittier/RDKit_G2/L.pdb/SCAN_1_2_3_4_S_17_20.0/13_SCAN_1_2_3_4_F/L.pdb.chk
%nproc=8
%mem=16GB
#p wB97XD/6-31+G Opt=ModRedun

L.pdb

0 1
C         1.628866       0.376891        0.069294
C         0.634231       -0.483687        -0.187300
C         -0.764870       -0.314102        0.293890
O         -1.608602       0.426449        -0.232067
H         -1.058684       -0.947745        1.151032
H         2.645311       0.183126        -0.259357
H         1.458932       1.307442        0.604597
H         0.833897       -1.429027        -0.695035

1 2 3 4 F
 