%chk=/home/unibas/boittier/RDKit_G2/L.pdb/OPT_B3LYP_6-31+G/L.pdb.chk
%nproc=8
%mem=16GB
#p B3LYP/6-31+G Opt Freq=NoRaman

L.pdb

0 1
C	3.349	-0.05	-0.896
C	2.12	-0.041	-1.102
C	1.352	-0.04	0.151
O	-0.127	-0.029	-0.189
H	1.751	-0.047	1.102
H	4.006	-0.051	-1.692
H	3.71	-0.056	0.071
H	1.692	-0.034	-2.041

