%chk=/home/unibas/boittier/RDKit_G2/L.pdb/SCAN_1_2_3_4_S_17_20.0/8_SCAN_1_2_3_4_F/L.pdb.chk
%nproc=8
%mem=16GB
#p wB97XD/6-31+G Opt=ModRedun

L.pdb

0 1
C         1.491758       0.466402        -0.036653
C         0.664547       -0.589748        0.065946
C         -0.800595       -0.468840        -0.070975
O         -1.439159       0.591304        0.063952
H         -1.342192       -1.404470        -0.289682
H         2.569582       0.358708        0.033321
H         1.097798       1.467028        -0.193536
H         1.053829       -1.598577        0.188377

1 2 3 4 F
 