%chk=/home/unibas/boittier/RDKit_G2/L.pdb/SCAN_1_2_3_4_S_17_20.0/7_SCAN_1_2_3_4_F/L.pdb.chk
%nproc=8
%mem=16GB
#p wB97XD/6-31+G Opt=ModRedun

L.pdb

0 1
C         1.519864       0.450138        -0.065644
C         0.657707       -0.563476        0.126858
C         -0.789879       -0.442370        -0.142018
O         -1.478256       0.559304        0.122152
H         -1.273599       -1.336989        -0.571445
H         2.589169       0.326216        0.074915
H         1.169077       1.433625        -0.366847
H         1.015253       -1.563028        0.370982

1 2 3 4 F
 