%chk=/home/unibas/boittier/RDKit_G2/B.pdb/SCAN_1_2_3_4_S_17_20.0/15_SCAN_1_2_3_4_F/B.pdb.chk
%nproc=8
%mem=16GB
#p wB97XD/6-31+G Opt=ModRedun

B.pdb

0 1
C         -1.554379       -0.850454        -0.234520
C         -0.512747       -0.095896        0.115582
C         0.882949       -0.484354        0.381789
C         1.933973       -0.013987        -0.308080
H         -2.518867       -0.410705        -0.457443
H         -1.455839       -1.928437        -0.286643
F         -0.701660       1.320602        0.118196
H         1.026621       -1.261426        1.130787
H         1.822877       0.744965        -1.077142
H         2.941369       -0.361661        -0.101940

1 2 3 4 F
 