%chk=/home/unibas/boittier/RDKit_G2/N.pdb/SCAN_1_2_6_8_S_17_20.0/1_SCAN_1_2_6_8_F/N.pdb.chk
%nproc=8
%mem=16GB
#p wB97XD/6-31+G Opt=ModRedun

N.pdb

0 1
C         2.304558       1.007790        -0.095226
C         1.468832       -0.204524        0.197278
H         1.720958       1.745775        -0.656942
H         3.188875       0.723461        -0.666169
H         2.616000       1.482601        0.843410
C         0.144876       0.025189        0.934164
O         1.817397       -1.348729        -0.098283
C         -1.044970       0.033921        0.012607
H         0.152631       0.980669        1.463434
H         -0.001854       -0.782627        1.655308
F         -0.923550       1.014235        -0.975631
F         -2.216358       0.317179        0.710465
F         -1.244044       -1.168559        -0.639913

1 2 6 8 F
 