%chk=/home/unibas/boittier/RDKit_G2/N.pdb/OPT_wB97XD_6-31+G/N.pdb.chk
%nproc=8
%mem=16GB
#p wB97XD/6-31+G Opt Freq=NoRaman

N.pdb

0 1
C	-3.074	1.461	1.367
C	-2.496	1.283	-0.014
H	-3.678	0.59	1.628
H	-3.692	2.363	1.383
H	-2.275	1.587	2.102
C	-1.092	0.771	-0.133
O	-3.169	1.527	-1.015
C	-1.095	-0.716	0.046
H	-0.463	1.261	0.617
H	-0.696	1.044	-1.116
F	-1.582	-1.068	1.256
F	0.17	-1.193	-0.027
F	-1.819	-1.348	-0.898

