%chk=/home/unibas/boittier/RDKit_G2/L.pdb/SCAN_1_2_3_4_S_17_20.0/3_SCAN_1_2_3_4_F/L.pdb.chk
%nproc=8
%mem=16GB
#p wB97XD/6-31+G Opt=ModRedun

L.pdb

0 1
C         1.706359       0.179576        0.195408
C         0.592414       -0.423045        -0.251131
C         -0.712166       0.283358        -0.298425
O         -1.712539       -0.106967        0.324591
H         -0.744693       1.244927        -0.840729
H         2.625210       -0.373695        0.362494
H         1.736990       1.245602        0.411084
H         0.563165       -1.500433        -0.404690

1 2 3 4 F
 