%chk=/home/unibas/boittier/RDKit_G2/B.pdb/SCAN_1_2_3_4_S_17_20.0/12_SCAN_1_2_3_4_F/B.pdb.chk
%nproc=8
%mem=16GB
#p wB97XD/6-31+G Opt=ModRedun

B.pdb

0 1
C         -1.051384       -1.259376        0.082569
C         -0.466619       -0.061660        0.059235
C         0.906702       0.341194        0.379563
C         1.992961       -0.124781        -0.257710
H         -2.102409       -1.377462        -0.151674
H         -0.475030       -2.141295        0.334067
F         -1.291241       1.075230        -0.206217
H         1.001539       1.114945        1.139880
H         1.916570       -0.851830        -1.061496
H         2.990537       0.206311        0.013232

1 2 3 4 F
 