%chk=/home/unibas/boittier/RDKit_G2/N.pdb/SCAN_1_2_6_8_S_17_20.0/13_SCAN_1_2_6_8_F/N.pdb.chk
%nproc=8
%mem=16GB
#p wB97XD/6-31+G Opt=ModRedun

N.pdb

0 1
C         1.683531       1.267463        -0.023980
C         1.549430       -0.226865        -0.044733
H         1.328257       1.701080        -0.964812
H         2.732438       1.524655        0.125549
H         1.081754       1.704531        0.779380
C         0.189077       -0.892738        -0.265306
O         2.524717       -0.975204        0.073124
C         -1.040165       -0.076609        -0.001474
H         0.148280       -1.786128        0.363218
H         0.144336       -1.229867        -1.307458
F         -1.076293       0.437312        1.293389
F         -2.189997       -0.841763        -0.159056
F         -1.169715       1.011102        -0.864100

1 2 6 8 F
 